  histfreq = 'm','d','x','x','x'
  histfreq_n = 1,1,1,1,1
  f_snowfrac = 'mdxxx'
  f_aice = 'mdxxx'
  f_hi = 'mdxxx'
  f_hs = 'mdxxx'
  f_uvel = 'mdxxx'
  f_vvel = 'mdxxx'
  f_aicen = 'mdxxx'
  f_daidtt = 'mdxxx'
  f_daidtd = 'mdxxx'
  f_dvidtt = 'mdxxx'
  f_dvidtd = 'mdxxx'
  f_apond = 'mdxxx'
  f_meltb = 'mdxxx'
  f_meltt = 'mdxxx'
